/*--------------------------------*- C++ -*----------------------------------*\
| =========                 |                                                 |
| \\      /  F ield         | OpenFOAM: The Open Source CFD Toolbox           |
|  \\    /   O peration     | Version:  2.4.0                                 |
|   \\  /    A nd           | Web:      www.OpenFOAM.org                      |
|    \\/     M anipulation  |                                                 |
\*---------------------------------------------------------------------------*/
FoamFile
{
    version     2.0;
    format      ascii;
    class       dictionary;
    object      sampleDict;
}
// * * * * * * * * * * * * * * * * * * * * * * * * * * * * * * * * * * * * //


type sets;
libs ("libsampling.so");

// Set output format : choice of
//      xmgr
//      jplot
//      gnuplot
//      raw
//      vtk
//      ensight
//      csv
setFormat raw;

// Surface output format. Choice of
//      null        : suppress output
//      ensight     : Ensight Gold format, one field per case file
//      foamFile    : separate points, faces and values file
//      dx          : DX scalar or vector format
//      vtk         : VTK ascii format
//      raw         : x y z value format for use with e.g. gnuplot 'splot'.
//
// Note:
// other formats such as obj, stl, etc can also be written (by proxy)
// but without any values!
surfaceFormat vtk;

// optionally define extra controls for the output formats
formatOptions
{
    ensight
    {
        format  ascii;
    }
}

// interpolationScheme. choice of
//      cell          : use cell-centre value only; constant over cells
//                      (default)
//      cellPoint     : use cell-centre and vertex values
//      cellPointFace : use cell-centre, vertex and face values.
//      pointMVC      : use point values only (Mean Value Coordinates)
//      cellPatchConstrained : like 'cell' but uses cell-centre except on
//                             boundary faces where it uses the boundary value.
//                             For use with e.g. patchCloudSet.
// 1] vertex values determined from neighbouring cell-centre values
// 2] face values determined using the current face interpolation scheme
//    for the field (linear, gamma, etc.)
interpolationScheme cellPoint;

// Fields to sample.
fields
(
    U
);

// Set sampling definition: choice of
//      uniform             evenly distributed points on line
//      face                one point per face intersection
//      midPoint            one point per cell, inbetween two face intersections
//      midPointAndFace     combination of face and midPoint
//
//      polyLine            specified points, not nessecary on line, uses
//                          tracking
//      cloud               specified points, uses findCell
//      triSurfaceMeshPointSet  points of triSurface
//
// axis: how to write point coordinate. Choice of
// - x/y/z: x/y/z coordinate only
// - xyz: three columns
//  (probably does not make sense for anything but raw)
// - distance: distance from start of sampling line (if uses line) or
//             distance from first specified sampling point
//
// type specific:
//      uniform, face, midPoint, midPointAndFace : start and end coordinate
//      uniform: extra number of sampling points
//      polyLine, cloud: list of coordinates
//      patchCloud: list of coordinates and set of patches to look for nearest
//      patchSeed: random sampling on set of patches. Points slightly off
//                 face centre.
sets
(
    lineX1
    {
        type        lineUniform;
        axis        z;

        //- cavity. Slightly perturbed so not to align with face or edge - wall.
        start       (2.03 0.5 1.00);
        end         (2.03 0.5 1.54);
        nPoints     1000;
    }
    lineX2
    {
        type        lineUniform;
        axis        z;

        //- cavity. Slightly perturbed so not to align with face or edge - wall.
        start       (4.06 0.5 0.929);
        end         (4.06 0.5 1.54);
        nPoints     1000;
    }
    lineX3
    {
        type        lineUniform;
        axis        z;

        //- cavity. Slightly perturbed so not to align with face or edge - wall.
        start       (6.09 0.5 0.531);
        end         (6.09 0.5 1.54);
        nPoints     1000;
    }
    lineX4
    {
        type        lineUniform;
        axis        z;

        //- cavity. Slightly perturbed so not to align with face or edge - wall.
        start       (8.12 0.5 0.133);
        end         (8.12 0.5 1.54);
        nPoints     1000;
    }
    lineX5
    {
        type        lineUniform;
        axis        z;

        //- cavity. Slightly perturbed so not to align with face or edge - inlet.
        start       (10.15 0.5 0.0);
        end         (10.15 0.5 1.54);
        nPoints     1000;
    }
    lineX6
    {
        type        lineUniform;
        axis        z;

        //- cavity. Slightly perturbed so not to align with face or edge - centre.
        start       (12.18 0.5 0.0);
        end         (12.18 0.5 1.54);
        nPoints     1000;
    }
    lineX7
    {
        type        lineUniform;
        axis        z;

        //- cavity. Slightly perturbed so not to align with face or edge - outlet.
        start       (14.21 0.5 0.0);
        end         (14.21 0.5 1.54);
        nPoints     1000;
    }
    lineX8
    {
        type        lineUniform;
        axis        z;

        //- cavity. Slightly perturbed so not to align with face or edge - wall.
        start       (16.24 0.5 0.0);
        end         (16.24 0.5 1.54);
        nPoints     1000;
    }
    lineX9
    {
        type        lineUniform;
        axis        z;

        //- cavity. Slightly perturbed so not to align with face or edge - inlet.
        start       (18.27 0.5 0.0);
        end         (18.27 0.5 1.54);
        nPoints     1000;
    }
    lineX10
    {
        type        lineUniform;
        axis        z;

        //- cavity. Slightly perturbed so not to align with face or edge - centre.
        start       (20.3 0.5 0.0);
        end         (20.3 0.5 1.54);
        nPoints     1000;
    }
);
